Circuit: * C:\Users\acham\Documents\UoM\Sem 4\EN2111 - Electronic Circuit Design\Circuit Simulations\Class D Power Amps\Class D Power Amps.asc

WARNING: Specified period is not longer than the sum of Trise, Tfall, and Ton for v2.  Increasing period to 2.0001e-005
Direct Newton iteration failed to find .op point.  (Use ".option noopiter" to skip.)
Starting Gmin stepping
Increasing initial diagonal Gmin to 100
Increasing initial diagonal Gmin to 1000
Gmin = 1000
Gmin = 107.374
Gmin = 11.5292
Gmin = 1.23794
Gmin = 0.132923
Gmin = 0.0142725
Gmin = 0.0015325
Gmin = 0.00016455
Gmin = 1.76685e-005
Gmin = 1.89714e-006
Gmin = 2.03704e-007
Gmin = 2.18725e-008
Gmin = 2.34854e-009
Gmin = 2.52173e-010
Gmin = 2.70769e-011
Gmin = 2.90735e-012
Gmin = 3.12175e-013
Gmin = 0
Gmin stepping succeeded in finding the operating point.


Date: Fri Jun 30 20:20:19 2023
Total elapsed time: 2.795 seconds.

tnom = 27
temp = 27
method = modified trap
totiter = 454710
traniter = 453883
tranpoints = 119916
accept = 90064
rejected = 29852
matrix size = 20
fillins = 1
solver = Normal
Matrix Compiler1: 1.11 KB object code size  0.3/0.1/[0.1]
Matrix Compiler2: off  [0.2]/0.3/0.4

