Circuit: * C:\Users\acham\Documents\UoM\Sem 4\EN2111 - Electronic Circuit Design\Circuit Simulations\LC Resonator.asc

WARNING: Less than two connections to node N001.  This node is used by R§LOAD.
Direct Newton iteration for .op point succeeded.

Date: Sat Jun 10 09:39:30 2023
Total elapsed time: 0.047 seconds.

tnom = 27
temp = 27
method = modified trap
totiter = 2085
traniter = 2082
tranpoints = 1042
accept = 1042
rejected = 0
matrix size = 2
fillins = 0
solver = Normal
Matrix Compiler1: off  [0.0]/0.0/0.0
Matrix Compiler2:      10 opcodes  0.0/[0.0]/0.0

