Circuit: * C:\Users\acham\Documents\UoM\Sem 4\EN2111 - Electronic Circuit Design\Circuit Simulations\Buck Converter\Buck Converter.asc

Limiting rise time of source v1 to 2.5e-006
Limiting fall time of source v1 to 2.5e-006
Direct Newton iteration for .op point succeeded.

Date: Sat Jul 01 07:22:10 2023
Total elapsed time: 0.272 seconds.

tnom = 27
temp = 27
method = modified trap
totiter = 29408
traniter = 29402
tranpoints = 8491
accept = 6447
rejected = 2044
matrix size = 11
fillins = 0
solver = Normal
Matrix Compiler1: 512 bytes object code size  0.1/0.1/[0.1]
Matrix Compiler2: off  [0.1]/0.1/0.1

