Circuit: * C:\Users\acham\Documents\GitHub\PCB-and-Simulation-Design-Projects\Circuit Simulations\Wein Bridge Oscillator 1\RC Phase Shift Oscillator.asc


Date: Sun Sep 03 12:27:10 2023
Total elapsed time: 0.038 seconds.

tnom = 27
temp = 27
method = trap
totiter = 0
traniter = 0
tranpoints = 0
accept = 0
rejected = 0
matrix size = 4
fillins = 0
solver = Normal

