Circuit: * C:\Users\acham\Documents\UoM\Sem 4\EN2111 - Electronic Circuit Design\Circuit Simulations\Wein Bridge Oscillator 2\Wein Bridge Oscillator 2.asc

Direct Newton iteration failed to find .op point.  (Use ".option noopiter" to skip.)
Starting Gmin stepping
Gmin = 10
Gmin = 1.07374
vernier = 0.5
vernier = 0.25
vernier = 0.125
Gmin = 1.02385
vernier = 0.0625
vernier = 0.03125
vernier = 0.015625
Gmin = 1.01955
vernier = 0.0078125
vernier = 0.00390625
Gmin = 1.01162
vernier = 0.00520833
vernier = 0.00260417
vernier = 0.00130208
Gmin = 1.00801
vernier = 0.00173611
vernier = 0.000868055
Gmin = 1.00593
vernier = 0.00115741
vernier = 0.000578703
vernier = 0.000771604
Gmin = 1.00452
vernier = 0.000578703
vernier = 0.000434027
Gmin = 1.00373
vernier = 0.000578703
vernier = 0.000434027
Gmin = 0
Gmin stepping failed

Starting source stepping with srcstepmethod=0
Source Step = 3.0303%
Source Step = 33.3333%
Source Step = 63.6364%
Source Step = 93.9394%
Source stepping succeeded in finding the operating point.


Date: Wed Jul 26 17:26:47 2023
Total elapsed time: 0.250 seconds.

tnom = 27
temp = 27
method = modified trap
totiter = 16414
traniter = 11020
tranpoints = 4236
accept = 3201
rejected = 1035
matrix size = 11
fillins = 7
solver = Normal
Matrix Compiler1: 974 bytes object code size  0.2/0.1/[0.1]
Matrix Compiler2:      91 opcodes  0.1/[0.2]/0.2

